1000
This is a carbon chain
C 0.000   0.000   0.000
C 0.000   0.000   1.540
C -1.307   -0.631   2.054
C -1.144   -2.160   2.132
C -2.388   -2.777   2.799
C -3.271   -3.441   1.726
C -2.753   -3.059   0.327
C -1.389   -3.730   0.082
C -1.563   -4.906   -0.897
C -1.948   -4.366   -2.287
C -1.344   -5.272   -3.376
C -0.214   -4.520   -4.102
C -0.822   -3.512   -5.096
C -0.979   -2.143   -4.408
C -2.398   -2.024   -3.820
C -2.676   -0.556   -3.443
C -1.660   0.358   -4.154
C -2.394   1.239   -5.182
C -1.583   1.286   -6.490
C -0.224   1.962   -6.229
C -0.114   2.336   -4.739
C 1.223   1.819   -4.177
C 1.943   0.982   -5.250
C 3.445   1.324   -5.248
C 3.703   2.498   -4.285
C 3.756   3.815   -5.083
C 4.894   4.699   -4.540
C 6.225   4.282   -5.194
C 7.072   5.536   -5.480
C 6.958   5.904   -6.971
C 7.977   7.009   -7.307
C 8.071   7.174   -8.836
C 7.129   6.167   -9.520
C 7.431   4.748   -9.004
C 8.808   4.734   -8.316
C 9.045   3.357   -7.667
C 9.588   3.549   -6.238
C 11.079   3.930   -6.303
C 11.926   2.658   -6.497
C 11.004   1.474   -6.840
C 11.265   1.022   -8.289
C 10.952   2.182   -9.253
C 11.962   3.322   -9.030
C 13.391   2.748   -9.014
C 13.329   1.213   -9.126
C 14.454   0.720   -10.055
C 13.850   0.258   -11.394
C 13.422   1.488   -12.216
C 14.472   1.766   -13.308
C 13.835   2.609   -14.429
C 12.656   1.836   -15.048
C 11.369   2.670   -14.917
C 10.175   1.735   -14.646
C 10.672   0.458   -13.945
C 10.222   0.472   -12.472
C 10.202   -0.968   -11.926
C 8.931   -1.686   -12.415
C 9.094   -2.068   -13.898
C 8.501   -0.956   -14.783
C 8.285   0.313   -13.939
C 7.489   -0.043   -12.670
C 6.045   -0.415   -13.056
C 5.120   -0.210   -11.842
C 5.436   -1.269   -10.770
C 5.679   -2.630   -11.447
C 4.529   -2.930   -12.427
C 3.197   -2.456   -11.816
C 3.089   -0.925   -11.944
C 2.479   -0.344   -10.654
C 3.203   0.965   -10.288
C 3.903   1.532   -11.537
C 3.032   1.269   -12.779
C 3.854   1.546   -14.052
C 3.296   0.707   -15.216
C 1.800   1.018   -15.404
C 1.256   0.226   -16.608
C 0.884   -1.199   -16.159
C 2.084   -2.138   -16.381
C 1.665   -3.589   -16.078
C 2.918   -4.437   -15.791
C 4.110   -3.880   -16.592
C 5.399   -4.607   -16.168
C 6.408   -4.587   -17.332
C 5.949   -3.569   -18.392
C 4.762   -4.149   -19.183
C 5.283   -5.153   -20.228
C 4.627   -4.863   -21.591
C 5.018   -5.963   -22.595
C 6.197   -6.778   -22.031
C 5.684   -8.134   -21.512
C 5.977   -9.228   -22.556
C 5.163   -8.949   -23.834
C 3.814   -9.686   -23.755
C 3.367   -10.094   -25.171
C 1.909   -9.650   -25.398
C 1.274   -10.518   -26.500
C 1.849   -10.111   -27.870
C 0.695   -9.874   -28.862
C -0.316   -11.031   -28.761
C 0.238   -12.117   -27.821
C 1.422   -12.831   -28.500
C 0.941   -14.166   -29.099
C -0.591   -14.141   -29.248
C -1.112   -15.576   -29.452
C -1.001   -16.356   -28.129
C -2.098   -15.879   -27.158
C -1.710   -16.261   -25.717
C -2.963   -16.730   -24.955
C -4.176   -16.720   -25.904
C -3.794   -17.394   -27.234
C -4.963   -18.271   -27.721
C -4.464   -19.231   -28.816
C -5.178   -18.913   -30.143
C -6.618   -18.451   -29.854
C -7.583   -19.124   -30.847
C -7.232   -18.688   -32.281
C -5.906   -17.905   -32.271
C -6.160   -16.471   -31.768
C -6.416   -15.543   -32.970
C -6.600   -16.389   -34.243
C -8.092   -16.432   -34.621
C -8.705   -17.764   -34.150
C -8.640   -18.793   -35.294
C -10.066   -19.111   -35.780
C -10.990   -19.313   -34.564
C -10.452   -18.505   -33.369
C -11.621   -17.795   -32.661
C -12.586   -17.219   -33.714
C -11.807   -16.313   -34.685
C -10.704   -15.563   -33.915
C -10.789   -14.058   -34.231
C -11.421   -13.859   -35.621
C -10.908   -12.544   -36.235
C -9.758   -11.988   -35.375
C -10.103   -12.160   -33.884
C -9.030   -13.033   -33.205
C -7.872   -13.281   -34.190
C -6.569   -13.514   -33.403
C -5.362   -13.334   -34.342
C -5.302   -14.511   -35.333
C -4.445   -14.114   -36.550
C -4.525   -12.591   -36.760
C -4.386   -11.876   -35.403
C -5.769   -11.390   -34.934
C -5.660   -9.939   -34.429
C -5.181   -9.939   -32.965
C -3.871   -10.742   -32.853
C -3.660   -11.181   -31.392
C -2.992   -12.568   -31.364
C -3.063   -13.202   -32.765
C -1.667   -13.708   -33.172
C -1.476   -15.150   -32.667
C -2.118   -16.133   -33.663
C -1.287   -17.428   -33.716
C -2.226   -18.646   -33.640
C -1.504   -19.888   -34.195
C 0.016   -19.643   -34.190
C 0.717   -20.772   -33.411
C 0.045   -20.940   -32.035
C 0.560   -19.850   -31.076
C 0.068   -18.471   -31.554
C -0.852   -17.854   -30.484
C -0.938   -18.801   -29.273
C -2.245   -19.612   -29.346
C -2.617   -20.116   -27.939
C -2.315   -19.018   -26.903
C -0.812   -19.030   -26.565
C -0.553   -18.133   -25.340
C -1.098   -18.821   -24.075
C -0.728   -17.986   -22.835
C -0.727   -18.889   -21.588
C -1.965   -19.804   -21.615
C -1.547   -21.244   -21.263
C -1.356   -22.055   -22.558
C -1.936   -23.470   -22.369
C -2.965   -23.454   -21.223
C -2.289   -23.921   -19.920
C -0.767   -24.009   -20.133
C -0.069   -22.901   -19.323
C 1.258   -23.438   -18.755
C 2.201   -22.259   -18.449
C 2.257   -21.317   -19.667
C 2.826   -19.953   -19.235
C 2.470   -19.691   -17.760
C 1.829   -18.297   -17.625
C 1.688   -17.938   -16.134
C 2.859   -18.552   -15.345
C 3.943   -17.482   -15.116
C 3.554   -16.606   -13.911
C 2.787   -15.365   -14.404
C 1.317   -15.740   -14.668
C 0.426   -14.500   -14.468
C -0.565   -14.385   -15.641
C -1.936   -13.924   -15.113
C -3.028   -14.893   -15.602
C -2.553   -16.344   -15.406
C -1.053   -16.351   -15.055
C -0.532   -17.800   -15.056
C 0.444   -17.996   -13.881
C -0.347   -18.067   -12.562
C 0.306   -19.101   -11.626
C 1.039   -18.371   -10.486
C 1.110   -19.288   -9.250
C 0.833   -18.461   -7.980
C 1.258   -17.000   -8.216
C 1.879   -16.431   -6.926
C 3.247   -15.801   -7.248
C 3.545   -15.961   -8.751
C 4.019   -17.399   -9.031
C 3.676   -18.297   -7.828
C 4.551   -19.564   -7.866
C 3.654   -20.811   -7.769
C 3.585   -21.503   -9.143
C 3.081   -20.501   -10.198
C 4.224   -19.545   -10.588
C 5.460   -19.841   -9.718
C 6.536   -18.770   -9.973
C 7.668   -19.372   -10.827
C 8.612   -20.191   -9.926
C 9.978   -20.345   -10.620
C 11.099   -19.944   -9.642
C 12.393   -19.669   -10.429
C 12.048   -18.972   -11.758
C 11.069   -17.813   -11.492
C 9.664   -18.381   -11.216
C 8.601   -17.405   -11.755
C 8.311   -17.725   -13.233
C 6.844   -17.384   -13.554
C 6.788   -16.475   -14.796
C 8.151   -16.498   -15.512
C 8.248   -15.297   -16.471
C 9.230   -15.627   -17.611
C 9.349   -14.416   -18.554
C 8.586   -14.704   -19.860
C 7.083   -14.443   -19.646
C 6.314   -14.780   -20.937
C 6.105   -16.303   -21.027
C 5.214   -16.770   -19.861
C 5.676   -18.160   -19.386
C 6.003   -19.038   -20.609
C 7.115   -20.038   -20.241
C 8.444   -19.585   -20.872
C 8.978   -20.694   -21.797
C 9.574   -21.831   -20.946
C 8.455   -22.501   -20.127
C 7.660   -23.461   -21.032
C 7.588   -22.883   -22.458
C 6.175   -23.100   -23.030
C 5.844   -24.604   -23.024
C 5.409   -25.029   -21.609
C 3.911   -24.724   -21.419
C 3.746   -23.328   -20.791
C 5.134   -22.706   -20.549
C 5.313   -22.416   -19.047
C 5.977   -23.626   -18.365
C 4.914   -24.430   -17.594
C 5.327   -25.913   -17.543
C 4.067   -26.798   -17.545
C 3.884   -27.435   -16.155
C 2.595   -26.897   -15.508
C 2.877   -25.529   -14.858
C 3.834   -24.722   -15.755
C 3.166   -23.394   -16.156
C 2.057   -23.051   -15.144
C 1.921   -21.521   -15.029
C 2.480   -21.055   -13.672
C 2.204   -19.551   -13.491
C 3.126   -18.988   -12.394
C 2.601   -17.614   -11.937
C 3.791   -16.690   -11.615
C 3.266   -15.304   -11.195
C 3.702   -14.253   -12.233
C 2.871   -12.970   -12.045
C 1.501   -13.329   -11.441
C 1.200   -14.817   -11.697
C 0.277   -15.354   -10.587
C -0.225   -14.181   -9.724
C -1.437   -14.637   -8.891
C -1.443   -13.893   -7.542
C -1.019   -12.429   -7.762
C -0.937   -11.708   -6.403
C -1.190   -10.203   -6.603
C -0.308   -9.399   -5.630
C -1.128   -8.243   -5.028
C -0.510   -7.820   -3.682
C 0.513   -8.879   -3.231
C 1.730   -8.853   -4.175
C 1.969   -10.264   -4.745
C 2.974   -10.184   -5.909
C 4.368   -10.613   -5.415
C 4.455   -10.417   -3.890
C 3.689   -11.550   -3.181
C 3.594   -11.242   -1.675
C 4.462   -10.013   -1.346
C 3.678   -9.063   -0.422
C 4.269   -9.124   0.999
C 3.672   -10.327   1.753
C 3.388   -9.929   3.213
C 4.376   -8.831   3.648
C 3.640   -7.480   3.728
C 2.120   -7.724   3.774
C 1.381   -6.441   3.353
C 0.266   -6.795   2.352
C 0.184   -8.325   2.193
C 1.598   -8.895   1.977
C 1.605   -9.792   0.725
C 0.414   -9.423   -0.178
C 0.808   -8.250   -1.095
C -0.461   -7.509   -1.555
C -1.691   -8.106   -0.846
C -2.935   -7.260   -1.176
C -3.457   -6.592   0.109
C -4.549   -7.474   0.741
C -5.652   -6.580   1.338
C -5.012   -5.338   1.986
C -5.792   -4.963   3.260
C -6.683   -6.146   3.684
C -6.073   -7.461   3.163
C -4.790   -7.781   3.952
C -4.917   -7.230   5.384
C -5.994   -8.024   6.147
C -5.338   -8.799   7.304
C -6.034   -8.433   8.628
C -6.871   -9.629   9.117
C -6.152   -10.942   8.757
C -4.668   -10.652   8.464
C -3.923   -11.977   8.220
C -4.336   -13.004   9.291
C -5.343   -12.358   10.261
C -4.616   -11.933   11.550
C -5.653   -11.560   12.626
C -6.005   -10.066   12.504
C -5.832   -9.383   13.873
C -6.742   -10.070   14.908
C -6.862   -9.179   16.159
C -5.474   -9.009   16.804
C -4.395   -8.986   15.704
C -3.540   -7.714   15.849
C -3.610   -7.211   17.303
C -2.367   -7.694   18.074
C -2.403   -7.136   19.509
C -2.003   -8.244   20.501
C -1.090   -7.653   21.591
C -0.361   -6.416   21.036
C 0.260   -6.756   19.668
C 1.268   -7.908   19.833
C 1.021   -8.619   21.177
C -0.224   -9.519   21.061
C -0.108   -10.397   19.802
C 1.145   -9.989   19.004
C 2.385   -10.675   19.608
C 2.761   -11.901   18.755
C 4.014   -12.573   19.345
C 3.803   -14.098   19.398
C 5.143   -14.792   19.707
C 5.254   -15.044   21.222
C 6.739   -15.116   21.624
C 6.936   -16.231   22.667
C 7.096   -15.604   24.065
C 8.563   -15.724   24.517
C 8.623   -16.420   25.889
C 9.935   -17.220   26.002
C 9.692   -18.672   25.549
C 10.794   -19.091   24.558
C 12.175   -18.781   25.163
C 12.255   -17.286   25.523
C 13.704   -16.923   25.896
C 13.783   -15.428   26.260
C 13.005   -15.175   27.564
C 13.630   -13.983   28.312
C 15.161   -14.143   28.347
C 15.544   -15.538   27.820
C 15.898   -15.443   26.324
C 16.318   -16.832   25.806
C 16.722   -17.723   26.994
C 17.181   -16.838   28.168
C 16.107   -16.851   29.272
C 16.526   -17.830   30.385
C 15.936   -17.363   31.729
C 16.157   -15.848   31.889
C 14.892   -15.204   32.487
C 13.836   -15.024   31.381
C 12.560   -15.800   31.757
C 12.156   -15.456   33.202
C 11.090   -16.455   33.689
C 10.820   -17.497   32.588
C 9.637   -17.031   31.719
C 8.923   -18.258   31.122
C 9.852   -18.950   30.107
C 10.078   -20.413   30.531
C 11.576   -20.755   30.419
C 11.828   -22.157   31.004
C 10.514   -22.961   30.997
C 9.570   -22.393   29.921
C 10.281   -22.405   28.555
C 9.642   -23.477   27.652
C 9.046   -24.596   28.526
C 8.300   -25.604   27.632
C 8.183   -25.037   26.205
C 7.179   -23.870   26.196
C 6.887   -23.432   27.644
C 5.462   -23.868   28.035
C 5.530   -24.816   29.247
C 5.516   -26.276   28.759
C 6.205   -27.174   29.804
C 7.384   -26.413   30.438
C 8.012   -27.272   31.551
C 9.443   -26.781   31.835
C 10.159   -27.786   32.756
C 10.337   -27.164   34.154
C 9.207   -27.649   35.080
C 7.925   -27.870   34.255
C 7.883   -29.325   33.751
C 9.242   -29.999   34.013
C 9.623   -29.831   35.496
C 8.559   -30.510   36.379
C 7.445   -29.500   36.711
C 6.390   -29.512   35.588
C 5.725   -28.126   35.494
C 4.195   -28.284   35.567
C 3.580   -27.036   36.227
C 4.473   -26.579   37.395
C 4.187   -25.099   37.713
C 2.673   -24.837   37.619
C 2.291   -24.546   36.155
C 3.563   -24.234   35.345
C 3.346   -22.951   34.521
C 4.345   -22.918   33.349
C 5.783   -22.899   33.901
C 6.698   -23.727   32.979
C 8.142   -23.202   33.081
C 8.424   -22.242   31.911
C 7.753   -20.884   32.188
C 7.785   -20.593   33.700
C 9.150   -19.988   34.078
C 10.260   -21.022   33.815
C 11.601   -20.294   33.604
C 11.521   -18.882   34.214
C 12.894   -18.195   34.101
C 13.931   -19.202   33.570
C 15.319   -18.860   34.143
C 15.469   -19.495   35.539
C 15.487   -18.387   36.608
C 14.167   -18.416   37.401
C 14.079   -17.168   38.299
C 12.683   -17.098   38.945
C 12.763   -16.292   40.255
C 14.001   -16.736   41.057
C 15.209   -16.859   40.111
C 15.945   -15.508   40.039
C 15.844   -14.794   41.400
C 17.221   -14.221   41.783
C 17.140   -12.684   41.840
C 16.280   -12.259   43.044
C 14.790   -12.319   42.659
C 13.937   -12.488   43.930
C 14.291   -11.379   44.938
C 13.093   -11.133   45.874
C 11.918   -12.034   45.451
C 10.588   -11.306   45.725
C 10.790   -9.788   45.561
C 9.429   -9.075   45.665
C 9.645   -7.619   46.120
C 9.155   -6.659   45.020
C 10.266   -5.645   44.690
C 9.671   -4.225   44.651
C 10.662   -3.235   45.291
C 11.603   -2.677   44.207
C 12.353   -3.839   43.530
C 11.345   -4.743   42.796
C 11.611   -6.214   43.165
C 10.645   -7.123   42.382
C 9.524   -6.269   41.762
C 8.232   -6.444   42.580
C 8.046   -5.233   43.514
C 7.089   -5.609   44.660
C 6.672   -7.085   44.518
C 5.160   -7.219   44.777
C 4.547   -5.821   44.979
C 3.804   -5.396   43.698
C 3.859   -3.864   43.556
C 3.852   -3.485   42.063
C 5.095   -2.634   41.743
C 5.592   -2.964   40.323
C 5.893   -1.656   39.567
C 5.928   -0.483   40.564
C 7.391   -0.091   40.845
C 8.066   -1.191   41.685
C 9.166   -0.566   42.562
C 8.973   -1.010   44.024
C 8.330   0.136   44.828
C 8.972   1.474   44.419
C 7.868   2.484   44.056
C 7.983   2.857   42.566
C 9.300   3.618   42.326
C 10.491   2.697   42.648
C 11.541   3.478   43.461
C 10.843   4.589   44.267
C 11.851   5.713   44.573
C 12.750   5.291   45.750
C 13.872   4.371   45.236
C 14.329   3.434   46.369
C 15.098   4.246   47.428
C 16.586   4.320   47.038
C 16.920   5.745   46.558
C 16.858   5.797   45.020
C 17.332   7.179   44.533
C 16.632   7.524   43.205
C 15.137   7.167   43.305
C 14.345   8.399   43.782
C 15.085   9.061   44.959
C 16.031   10.152   44.423
C 17.262   10.263   45.342
C 16.801   10.505   46.791
C 16.939   9.200   47.599
C 17.487   8.087   46.687
C 19.001   8.287   46.484
C 19.637   8.765   47.803
C 21.164   8.863   47.630
C 21.800   9.357   48.943
C 20.762   9.277   50.078
C 21.308   8.389   51.211
C 22.600   7.694   50.743
C 22.279   6.748   49.571
C 21.385   5.597   50.068
C 22.046   4.249   49.728
C 21.466   3.711   48.406
C 22.507   3.877   47.283
C 23.921   3.671   47.859
C 24.604   5.039   48.046
C 26.077   4.942   47.608
C 26.564   3.489   47.760
C 26.936   2.924   46.377
C 26.558   1.433   46.312
C 27.827   0.590   46.085
C 29.072   1.443   46.391
C 30.076   1.323   45.229
C 30.792   -0.038   45.307
C 29.746   -1.165   45.382
C 30.461   -2.522   45.519
C 29.417   -3.654   45.544
C 28.202   -3.252   44.687
C 27.090   -4.305   44.845
C 25.732   -3.597   45.013
C 25.955   -2.187   45.589
C 26.168   -1.188   44.436
C 27.216   -1.749   43.457
C 26.531   -2.125   42.130
C 26.233   -0.846   41.325
C 26.625   -1.063   39.852
C 27.896   -0.253   39.533
C 28.383   0.462   40.807
C 29.627   -0.259   41.358
C 30.122   0.464   42.624
C 31.505   -0.084   43.021
C 31.565   -1.594   42.724
C 33.011   -2.095   42.896
C 33.333   -3.122   41.795
C 33.882   -4.410   42.438
C 35.136   -4.872   41.672
C 36.292   -3.890   41.939
C 37.053   -4.324   43.205
C 36.582   -3.479   44.403
C 35.174   -3.934   44.831
C 35.294   -5.031   45.906
C 36.324   -4.601   46.967
C 35.844   -5.047   48.360
C 35.732   -3.820   49.283
C 34.468   -3.017   48.919
C 33.273   -3.978   48.777
C 33.642   -5.350   49.370
C 32.804   -6.447   48.688
C 32.688   -7.663   49.625
C 34.080   -8.290   49.829
C 33.966   -9.825   49.775
C 35.226   -10.456   50.396
C 34.942   -10.838   51.861
C 35.781   -9.948   52.797
C 37.014   -10.731   53.282
C 37.275   -10.413   54.766
C 36.958   -8.930   55.036
C 37.085   -8.130   53.727
C 37.617   -6.719   54.036
C 38.125   -6.064   52.738
C 38.710   -4.676   53.056
C 37.562   -3.668   53.253
C 36.551   -4.232   54.269
C 37.308   -4.889   55.438
C 36.939   -4.179   56.753
C 35.422   -4.299   56.994
C 35.155   -4.510   58.496
C 36.410   -4.122   59.300
C 36.180   -2.763   59.988
C 37.536   -2.154   60.390
C 38.569   -2.421   59.279
C 38.403   -3.860   58.758
C 39.551   -4.191   57.787
C 40.120   -5.583   58.118
C 38.988   -6.493   58.629
C 39.293   -6.931   60.074
C 39.149   -8.460   60.188
C 40.013   -8.971   61.356
C 39.280   -10.120   62.074
C 39.243   -11.358   61.159
C 37.888   -11.418   60.430
C 36.849   -12.110   61.332
C 36.189   -11.066   62.251
C 35.605   -9.925   61.397
C 36.738   -8.977   60.962
C 36.211   -7.530   60.923
C 36.248   -7.009   59.474
C 34.835   -6.566   59.051
C 33.892   -6.626   60.267
C 34.024   -7.999   60.953
C 33.533   -9.101   59.997
C 32.320   -8.586   59.199
C 31.743   -9.731   58.346
C 32.764   -10.134   57.267
C 33.397   -8.868   56.659
C 34.190   -9.246   55.394
C 35.172   -10.385   55.725
C 36.189   -9.899   56.774
C 35.527   -9.887   58.165
C 35.738   -11.252   58.847
C 36.381   -12.231   57.848
C 37.703   -12.765   58.430
C 38.635   -13.193   57.281
C 39.582   -14.303   57.774
C 41.005   -13.734   57.927
C 41.681   -14.364   59.159
C 42.499   -13.291   59.902
C 42.334   -11.935   59.190
C 43.391   -10.947   59.716
C 44.779   -11.344   59.178
C 44.994   -10.710   57.791
C 43.970   -9.580   57.579
C 43.084   -9.911   56.363
C 41.615   -9.586   56.693
C 40.702   -10.677   56.104
C 41.480   -11.483   55.048
C 41.238   -12.988   55.269
C 39.732   -13.243   55.463
C 39.035   -13.270   54.090
C 39.074   -11.863   53.466
C 40.061   -11.852   52.283
C 39.809   -13.084   51.393
C 41.066   -13.376   50.552
C 40.654   -13.687   49.102
C 41.403   -12.745   48.141
C 40.839   -12.908   46.717
C 39.704   -13.949   46.730
C 38.484   -13.371   47.471
C 38.282   -11.901   47.059
C 39.653   -11.241   46.817
C 39.503   -10.110   45.784
C 39.070   -10.703   44.430
C 39.356   -9.688   43.308
C 40.666   -8.938   43.614
C 41.782   -9.955   43.912
C 42.897   -9.818   42.858
C 42.316   -10.087   41.458
C 40.869   -9.565   41.392
C 40.813   -8.317   40.492
C 39.779   -7.324   41.053
C 38.387   -7.653   40.481
C 37.592   -6.349   40.282
C 36.270   -6.659   39.555
C 35.101   -6.565   40.552
C 33.860   -7.255   39.956
C 33.530   -8.516   40.776
C 34.627   -9.575   40.555
C 35.371   -9.827   41.879
C 34.475   -10.648   42.825
C 33.914   -11.868   42.071
C 32.386   -11.929   42.256
C 31.779   -12.880   41.208
C 30.598   -12.184   40.506
C 29.785   -11.384   41.540
C 29.458   -12.284   42.746
C 30.270   -13.589   42.647
C 31.086   -13.786   43.939
C 30.161   -13.626   45.160
C 29.408   -12.287   45.063
C 30.375   -11.187   44.586
C 30.166   -9.916   45.431
C 30.782   -10.120   46.827
C 29.854   -11.011   47.674
C 30.698   -12.034   48.457
C 31.849   -11.308   49.177
C 33.153   -11.494   48.380
C 33.025   -10.795   47.014
C 34.375   -10.161   46.632
C 35.340   -10.247   47.829
C 36.048   -11.615   47.821
C 35.038   -12.718   48.185
C 35.656   -14.098   47.891
C 36.666   -14.455   48.997
C 37.117   -15.918   48.828
C 38.014   -16.039   47.582
C 38.686   -17.425   47.565
C 40.216   -17.254   47.552
C 40.837   -18.258   46.564
C 39.832   -18.560   45.437
C 39.028   -19.824   45.790
C 37.524   -19.543   45.614
C 36.799   -20.847   45.231
C 36.373   -21.593   46.509
C 34.941   -21.179   46.893
C 33.931   -21.980   46.051
C 33.909   -21.429   44.613
C 35.279   -21.669   43.950
C 35.584   -23.178   43.932
C 34.638   -23.905   44.906
C 35.371   -24.166   46.235
C 35.577   -25.681   46.420
C 35.622   -26.366   45.041
C 34.624   -27.539   45.017
C 33.209   -27.004   44.728
C 33.285   -25.898   43.660
C 32.235   -24.814   43.965
C 32.125   -23.853   42.767
C 32.369   -22.409   43.243
C 31.025   -21.757   43.618
C 29.877   -22.742   43.327
C 29.630   -23.623   44.565
C 29.604   -22.741   45.828
C 28.727   -21.502   45.571
C 27.464   -21.918   44.793
C 27.731   -23.238   44.048
C 27.727   -24.406   45.052
C 26.376   -25.141   44.981
C 25.795   -25.011   43.561
C 25.039   -26.301   43.194
C 25.988   -27.261   42.453
C 25.816   -27.082   40.933
C 27.144   -26.604   40.318
C 27.206   -27.024   38.838
C 25.790   -27.378   38.344
C 25.806   -28.775   37.697
C 24.360   -29.269   37.506
C 24.249   -30.730   37.979
C 22.873   -30.956   38.633
C 21.763   -30.703   37.596
C 21.636   -29.190   37.339
C 20.986   -28.514   38.560
C 22.058   -28.257   39.636
C 23.411   -27.973   38.957
C 23.400   -26.551   38.366
C 23.193   -25.526   39.497
C 23.055   -26.264   40.841
C 21.574   -26.290   41.264
C 21.315   -25.177   42.296
C 19.827   -25.180   42.693
C 19.667   -25.821   44.084
C 18.467   -26.786   44.071
C 17.373   -26.233   43.139
C 16.229   -27.258   43.023
C 16.537   -28.245   41.882
C 17.466   -27.570   40.856
C 16.630   -27.037   39.677
C 17.566   -26.642   38.520
C 16.799   -26.725   37.187
C 17.685   -27.404   36.126
C 17.493   -26.700   34.770
C 15.988   -26.571   34.466
C 15.789   -25.676   33.229
C 16.902   -25.960   32.204
C 18.277   -25.760   32.869
C 18.994   -27.118   32.986
C 20.313   -26.938   33.760
C 21.403   -27.825   33.130
C 22.718   -27.657   33.914
C 22.517   -28.133   35.365
C 23.028   -29.579   35.506
C 21.830   -30.544   35.575
C 22.257   -31.932   35.062
C 21.536   -32.233   33.735
C 20.034   -31.925   33.884
C 19.626   -30.849   32.861
C 20.883   -30.114   32.360
C 20.933   -30.172   30.821
C 22.052   -29.246   30.308
C 21.474   -27.846   30.032
C 20.117   -27.981   29.316
C 20.347   -28.432   27.861
C 19.199   -27.915   26.975
C 19.329   -28.515   25.563
C 18.252   -29.598   25.363
C 18.918   -30.986   25.335
C 18.443   -31.808   26.547
C 17.014   -32.324   26.291
C 16.336   -31.448   25.220
C 15.001   -30.911   25.767
C 14.300   -32.011   26.586
C 12.900   -32.274   26.002
C 12.018   -32.953   27.066
C 12.164   -34.482   26.955
C 13.204   -34.975   27.978
C 13.173   -36.514   28.042
C 13.153   -37.088   26.613
C 11.695   -37.271   26.153
C 11.232   -36.012   25.398
C 12.458   -35.167   25.007
C 12.036   -34.087   23.993
C 10.499   -34.029   23.914
C 9.985   -32.845   24.754
C 10.891   -31.621   24.526
C 10.020   -30.384   24.239
C 10.790   -29.414   23.323
C 10.010   -28.091   23.204
C 10.391   -27.387   21.888
C 9.553   -27.968   20.734
C 9.713   -29.500   20.702
C 8.420   -30.162   21.212
C 7.574   -30.629   20.012
C 6.450   -29.610   19.748
C 5.678   -30.014   18.479
C 5.971   -31.489   18.147
C 7.259   -31.581   17.308
C 8.428   -30.955   18.092
C 8.204   -29.437   18.223
C 9.541   -28.746   18.549
C 10.224   -28.305   17.241
C 10.061   -26.784   17.064
C 10.643   -26.059   18.291
C 10.582   -24.537   18.066
C 11.457   -23.826   19.116
C 11.004   -22.361   19.255
C 12.031   -21.583   20.098
C 12.417   -20.283   19.369
C 11.359   -19.201   19.653
C 11.932   -17.816   19.300
C 13.465   -17.909   19.181
C 13.886   -17.628   17.727
C 14.297   -16.150   17.587
C 14.062   -15.423   18.924
C 12.566   -15.480   19.285
C 12.379   -15.097   20.764
C 13.624   -15.519   21.566
C 14.505   -14.284   21.836
C 14.365   -13.866   23.311
C 14.472   -12.334   23.423
C 13.452   -11.677   22.475
C 12.710   -10.550   23.218
C 13.725   -9.689   23.991
C 12.988   -8.539   24.702
C 12.493   -9.019   26.079
C 11.603   -10.262   25.900
C 10.413   -9.916   24.986
C 9.296   -10.958   25.179
C 7.970   -10.398   24.631
C 7.929   -10.576   23.102
C 9.362   -10.756   22.567
C 10.074   -11.862   23.368
C 9.596   -13.241   22.877
C 10.817   -14.121   22.547
C 12.064   -13.231   22.391
C 11.916   -12.352   21.136
C 12.031   -13.231   19.876
C 10.871   -12.909   18.916
C 10.610   -11.391   18.916
C 11.858   -10.655   18.393
C 11.649   -10.277   16.915
C 13.000   -9.879   16.290
C 14.059   -10.943   16.636
C 15.181   -10.298   17.471
C 15.558   -8.936   16.861
C 16.673   -8.286   17.701
C 17.760   -9.333   18.010
C 17.891   -10.304   16.822
C 17.273   -9.664   15.565
C 18.396   -9.176   14.632
C 19.628   -10.087   14.789
C 20.124   -10.035   16.245
C 21.525   -9.397   16.288
C 21.924   -9.131   17.752
C 20.955   -8.107   18.371
C 21.381   -7.807   19.820
C 22.651   -6.937   19.812
C 23.178   -6.808   18.371
C 22.284   -5.834   17.582
C 22.720   -4.386   17.872
C 22.206   -3.460   16.754
C 21.609   -4.310   15.617
C 21.790   -3.575   14.276
C 21.212   -4.434   13.136
C 21.170   -3.606   11.838
C 20.647   -4.483   10.686
C 20.950   -5.962   10.987
C 21.166   -6.722   9.665
C 19.812   -7.234   9.138
C 19.990   -8.645   8.549
C 20.867   -8.568   7.285
C 20.430   -7.364   6.429
C 21.155   -6.096   6.918
C 20.146   -4.938   7.027
C 20.294   -4.011   5.806
C 20.777   -2.624   6.269
C 21.440   -2.746   7.654
C 22.967   -2.612   7.506
C 23.443   -3.448   6.304
C 23.599   -2.536   5.073
C 24.103   -1.151   5.521
C 24.234   -0.230   4.293
C 25.500   -0.607   3.501
C 25.175   -0.637   1.996
C 26.386   -0.120   1.198
C 25.902   0.835   0.091
C 24.492   0.418   -0.368
C 24.561   -0.960   -1.052
C 26.027   -1.428   -1.117
C 26.114   -2.907   -0.694
C 24.832   -3.642   -1.129
C 24.651   -4.908   -0.271
C 24.383   -6.116   -1.189
C 23.671   -5.641   -2.469
C 23.038   -4.258   -2.223
C 22.001   -3.965   -3.322
C 20.656   -3.588   -2.673
C 20.915   -2.782   -1.386
C 21.848   -3.581   -0.458
C 21.031   -4.636   0.310
C 20.907   -4.217   1.786
C 19.640   -4.846   2.395
C 18.959   -5.746   1.348
C 18.062   -4.887   0.437
C 16.644   -5.486   0.399
C 15.892   -5.107   1.688
C 14.515   -4.519   1.326
C 14.577   -2.982   1.397
C 14.382   -2.526   2.855
C 14.400   -0.987   2.919
C 13.057   -0.436   2.404
C 12.810   -0.939   0.970
C 11.341   -1.381   0.826
C 10.529   -0.864   2.028
C 11.159   0.441   2.551
C 11.150   1.500   1.434
C 9.734   1.609   0.840
C 8.826   2.384   1.813
C 8.359   3.692   1.149
C 7.119   4.229   1.889
C 6.430   5.302   1.025
C 6.454   4.866   -0.452
C 7.332   3.610   -0.603
C 6.511   2.361   -0.230
C 7.102   1.127   -0.938
C 6.063   -0.009   -0.942
C 5.564   -0.244   -2.380
C 4.035   -0.067   -2.430
C 3.479   -0.751   -3.692
C 4.635   -1.397   -4.478
C 4.071   -2.137   -5.706
C 2.544   -2.281   -5.562
C 2.162   -2.240   -4.071
C 2.019   -3.678   -3.537
C 3.417   -4.273   -3.284
C 3.624   -5.502   -4.189
C 4.507   -5.113   -5.389
C 5.941   -4.830   -4.902
C 6.717   -4.078   -5.999
C 7.440   -5.093   -6.903
C 8.524   -4.370   -7.725
C 7.853   -3.443   -8.756
C 8.347   -2.000   -8.548
C 8.008   -1.542   -7.118
C 9.214   -0.796   -6.517
C 8.901   0.710   -6.439
C 8.594   1.244   -7.851
C 9.414   0.455   -8.889
C 9.118   1.000   -10.299
C 7.698   0.582   -10.724
C 6.789   1.824   -10.767
C 6.241   2.011   -12.194
C 6.069   3.513   -12.486
C 6.313   4.319   -11.197
C 6.527   5.802   -11.550
C 5.337   6.308   -12.387
C 4.122   5.391   -12.160
C 3.876   4.542   -13.421
C 4.459   5.264   -14.650
C 3.455   6.319   -15.150
C 4.173   7.308   -16.087
C 5.551   7.666   -15.499
C 6.135   6.439   -14.775
C 6.465   5.343   -15.805
C 6.647   5.982   -17.195
C 8.148   6.191   -17.471
C 8.485   5.686   -18.887
C 8.818   6.885   -19.794
C 8.241   6.642   -21.201
C 6.893   5.907   -21.084
C 7.002   4.800   -20.018
C 6.356   3.508   -20.552
C 7.458   2.530   -20.999
C 7.044   1.090   -20.640
C 6.632   1.029   -19.157
C 7.330   -0.165   -18.479
C 7.625   -1.252   -19.529
C 6.365   -1.501   -20.379
